<?xml version="1.0" encoding="UTF-8"?>

<!-- generated on 2025-04-10 18:09:36 by Eclipse SUMO netedit Version 1.22.0
-->

<additional xmlns:xsi="http://www.w3.org/2001/XMLSchema-instance" xsi:noNamespaceSchemaLocation="http://sumo.dlr.de/xsd/additional_file.xsd">
    <!-- Shapes -->
    <poly id="1021506878" type="residential" color="235,235,227" fill="1" layer="-3.00" shape="495.352462,1308.011642 499.214877,909.656472 690.918714,912.359268 691.306038,955.863853 704.571414,956.033805 736.226881,955.970357 736.147946,914.093389 828.974822,914.718813 828.739564,1004.511792 826.240858,1019.187502 827.892414,1060.406044 805.515982,1058.956435 804.303649,1078.436356 820.822593,1077.366797 827.812128,1117.560929 828.368383,1216.701884 845.650166,1215.641112 846.280966,1262.191594 853.548550,1262.025452 852.801176,1308.945726 495.352462,1308.011642"/>
    <poly id="1035881616" type="building" color="255,230,230" fill="1" layer="-1.00" shape="1571.841317,95.377463 1585.243314,95.115951 1585.470332,105.639948 1572.068347,105.901460 1571.841317,95.377463"/>
    <poly id="1035881617" type="building" color="255,230,230" fill="1" layer="-1.00" shape="1541.836709,105.216108 1542.001961,95.023300 1560.101432,95.301676 1559.935834,105.383700 1541.836709,105.216108"/>
    <poly id="1035881618" type="building" color="255,230,230" fill="1" layer="-1.00" shape="1569.353636,81.315052 1569.520234,71.565384 1587.032761,71.845552 1586.866148,81.595219 1569.353636,81.315052"/>
    <poly id="1035881619" type="building" color="255,230,230" fill="1" layer="-1.00" shape="1560.059481,81.231974 1542.253147,80.841937 1542.420053,71.203054 1560.226071,71.482307 1560.059481,81.231974"/>
    <poly id="1035881620" type="building" color="255,230,230" fill="1" layer="-1.00" shape="1521.012188,76.917026 1530.991155,76.998028 1530.664966,98.823852 1520.686017,98.742850 1521.012188,76.917026"/>
    <poly id="1035881621" type="building" color="255,230,230" fill="1" layer="-1.00" shape="1595.756774,77.580437 1605.638570,77.883364 1605.019413,99.931629 1595.039806,99.628993 1595.756774,77.580437"/>
    <poly id="1035881622" type="building" color="255,230,230" fill="1" layer="-1.00" shape="1475.601806,103.973675 1458.090978,104.247599 1457.963332,94.277236 1475.474174,94.003312 1475.601806,103.973675"/>
    <poly id="1035881623" type="building" color="255,230,230" fill="1" layer="-1.00" shape="1448.668854,94.083462 1448.405852,104.276566 1430.795206,103.886112 1431.058192,93.693008 1448.668854,94.083462"/>
    <poly id="1035881624" type="building" color="255,230,230" fill="1" layer="-1.00" shape="1422.982107,75.659054 1422.558621,97.595960 1412.579337,97.404265 1413.002805,75.467358 1422.982107,75.659054"/>
    <poly id="1035881625" type="building" color="255,230,230" fill="1" layer="-1.00" shape="1447.616989,69.492105 1447.939972,79.351097 1431.408400,79.954490 1431.085071,69.984713 1447.616989,69.492105"/>
    <poly id="1035881626" type="building" color="255,230,230" fill="1" layer="-1.00" shape="1475.990623,70.404340 1475.629436,80.486950 1458.311583,79.874008 1458.770253,69.680320 1475.990623,70.404340"/>
    <poly id="1035881627" type="building" color="255,230,230" fill="1" layer="-1.00" shape="1497.205921,98.480605 1487.226971,98.399631 1487.356096,76.131250 1497.335065,76.212224 1497.205921,98.480605"/>
    <poly id="1035881634" type="building" color="255,230,230" fill="1" layer="-1.00" shape="1412.459975,122.885416 1422.341407,123.077404 1421.917925,145.014312 1412.134340,144.822031 1412.459975,122.885416"/>
    <poly id="1035881635" type="building" color="255,230,230" fill="1" layer="-1.00" shape="1430.320296,141.333222 1452.332539,141.488935 1452.362361,151.459592 1430.252639,151.414956 1430.320296,141.333222"/>
    <poly id="1035881636" type="building" color="255,230,230" fill="1" layer="-1.00" shape="1452.193291,127.641095 1430.473847,127.262932 1430.639665,117.291691 1452.260967,117.559361 1452.193291,127.641095"/>
    <poly id="1035881637" type="building" color="255,230,230" fill="1" layer="-1.00" shape="1482.130729,128.105521 1461.487411,127.724086 1461.653256,117.752845 1482.394752,118.244774 1482.130729,128.105521"/>
    <poly id="1035881638" type="building" color="255,230,230" fill="1" layer="-1.00" shape="1461.265477,151.654538 1461.430990,141.572512 1483.247904,141.839654 1483.082703,152.032465 1461.265477,151.654538"/>
    <poly id="1035881639" type="building" color="255,230,230" fill="1" layer="-1.00" shape="1541.880336,152.632406 1542.143417,142.439305 1559.656170,142.830216 1559.490903,153.023025 1541.880336,152.632406"/>
    <poly id="1035881640" type="building" color="255,230,230" fill="1" layer="-1.00" shape="1568.363301,142.915042 1586.168219,142.861978 1586.198918,153.164989 1568.296186,153.218345 1568.363301,142.915042"/>
    <poly id="1035881641" type="building" color="255,230,230" fill="1" layer="-1.00" shape="1604.671138,147.238304 1594.496573,147.157822 1594.826839,126.661420 1605.001751,126.852688 1604.671138,147.238304"/>
    <poly id="1035881642" type="building" color="255,230,230" fill="1" layer="-1.00" shape="1568.517017,128.844756 1568.781113,118.984011 1586.587387,119.374088 1586.421106,129.234541 1568.517017,128.844756"/>
    <poly id="1035881643" type="building" color="255,230,230" fill="1" layer="-1.00" shape="1541.711448,128.813910 1541.875708,118.288745 1559.975474,118.677906 1559.810866,129.092285 1541.711448,128.813910"/>
    <poly id="1035881646" type="building" color="255,230,230" fill="1" layer="-1.00" shape="1385.768608,63.030111 1385.797490,72.668411 1350.872243,72.773119 1350.843332,63.134818 1385.768608,63.030111"/>
    <poly id="1035881647" type="building" color="255,230,230" fill="1" layer="-1.00" shape="1354.272554,97.468212 1354.246636,88.826977 1384.672002,88.846548 1384.697565,97.376998 1354.272554,97.468212"/>
    <poly id="1035881648" type="building" color="255,230,230" fill="1" layer="-1.00" shape="1358.533049,115.402777 1384.458522,115.546629 1384.388248,124.742083 1358.560957,124.708723 1358.533049,115.402777"/>
    <poly id="1035881651" type="building" color="255,230,230" fill="1" layer="-1.00" shape="1281.284332,95.250057 1281.037396,78.189744 1290.526552,78.050442 1290.675645,95.111049 1281.284332,95.250057"/>
    <poly id="1035881652" type="building" color="255,230,230" fill="1" layer="-1.00" shape="1307.457094,79.993732 1307.892344,62.045083 1317.382511,62.238158 1316.849749,80.297886 1307.457094,79.993732"/>
    <poly id="1035881653" type="building" color="255,230,230" fill="1" layer="-1.00" shape="1346.153692,97.824923 1315.335367,97.252701 1315.502087,87.613813 1346.320437,88.186036 1346.153692,97.824923"/>
    <poly id="1035881654" type="building" color="255,230,230" fill="1" layer="-1.00" shape="1322.411309,140.548811 1312.823376,140.356027 1313.221704,110.110232 1322.809330,110.192233 1322.411309,140.548811"/>
    <poly id="1035881655" type="building" color="255,230,230" fill="1" layer="-1.00" shape="1335.156128,116.913125 1344.450591,117.106809 1343.955351,147.685250 1334.660912,147.491567 1335.156128,116.913125"/>
    <poly id="1035881659" type="building" color="255,230,230" fill="1" layer="-1.00" shape="1196.123810,79.331547 1196.094773,69.693245 1227.302165,69.488481 1227.331177,79.126783 1196.123810,79.331547"/>
    <poly id="1035888595" type="building" color="255,230,230" fill="1" layer="-1.00" shape="1243.664418,77.637411 1252.861085,77.831317 1252.424587,95.336830 1243.227934,95.142924 1243.664418,77.637411"/>
    <poly id="1035888596" type="building" color="255,230,230" fill="1" layer="-1.00" shape="1201.485376,105.460911 1201.551836,95.046819 1217.596232,95.109285 1217.529758,105.523377 1201.485376,105.460911"/>
    <poly id="1035888597" type="building" color="255,230,230" fill="1" layer="-1.00" shape="1226.506615,130.201649 1204.191845,127.056045 1206.202884,112.647797 1228.615511,115.793110 1226.506615,130.201649"/>
    <poly id="1035888598" type="building" color="255,230,230" fill="1" layer="-1.00" shape="1141.570779,59.000601 1141.905719,72.737065 1130.753786,72.992292 1130.642580,68.561184 1122.229545,68.697366 1122.006125,59.502795 1141.570779,59.000601"/>
    <poly id="1035888599" type="building" color="255,230,230" fill="1" layer="-1.00" shape="1246.235815,119.396026 1260.322922,119.242868 1260.338247,124.338981 1267.968607,124.205251 1267.854790,118.887861 1274.702851,118.867273 1274.951128,136.370727 1254.407641,136.654073 1254.411973,138.094279 1246.585963,138.228607 1246.235815,119.396026"/>
    <poly id="1035888600" type="building" color="255,230,230" fill="1" layer="-1.00" shape="1340.393744,199.654607 1331.294671,199.349554 1331.900006,172.869864 1341.096596,173.063839 1340.393744,199.654607"/>
    <poly id="1035888601" type="building" color="255,230,230" fill="1" layer="-1.00" shape="1313.844224,187.104687 1321.475541,187.303346 1320.932471,201.928739 1313.398992,201.729787 1313.844224,187.104687"/>
    <poly id="1035888602" type="building" color="255,230,230" fill="1" layer="-1.00" shape="1352.739775,206.153947 1352.908183,197.068983 1383.529922,197.420317 1383.459318,206.504987 1352.739775,206.153947"/>
    <poly id="1035888603" type="building" color="255,230,230" fill="1" layer="-1.00" shape="1383.977897,183.681502 1366.074212,183.402811 1366.241635,173.985493 1384.145334,174.264184 1383.977897,183.681502"/>
    <poly id="1035888604" type="building" color="255,230,230" fill="1" layer="-1.00" shape="1366.552899,147.285116 1366.720324,137.867798 1384.330590,138.147370 1384.162820,147.453902 1366.552899,147.285116"/>
    <poly id="1035888605" type="building" color="255,230,230" fill="1" layer="-1.00" shape="1442.762788,180.071112 1442.695452,190.263632 1420.878295,189.885781 1421.043440,179.692968 1442.762788,180.071112"/>
    <poly id="1035888606" type="building" color="255,230,230" fill="1" layer="-1.00" shape="1407.397158,196.351739 1417.376026,196.432645 1417.226474,211.832356 1407.247619,211.751452 1407.397158,196.351739"/>
    <poly id="1035888607" type="building" color="255,230,230" fill="1" layer="-1.00" shape="1442.540895,204.001567 1442.473560,214.194086 1420.755271,214.148299 1420.724758,203.956072 1442.540895,204.001567"/>
    <poly id="1035888608" type="building" color="255,230,230" fill="1" layer="-1.00" shape="1451.639297,204.085135 1478.544182,204.669407 1478.281159,214.862511 1451.376297,214.278240 1451.639297,204.085135"/>
    <poly id="1035888609" type="building" color="255,230,230" fill="1" layer="-1.00" shape="1451.597545,190.126215 1451.861540,180.265466 1478.863977,180.738662 1478.698119,190.709903 1451.597545,190.126215"/>
    <poly id="1035888610" type="building" color="255,230,230" fill="1" layer="-1.00" shape="1487.688772,187.470240 1497.666653,187.218858 1498.122169,208.709993 1488.144306,208.961375 1487.688772,187.470240"/>
    <poly id="1035888611" type="building" color="255,230,230" fill="1" layer="-1.00" shape="1517.688897,208.983919 1518.114207,187.600940 1527.799594,187.682815 1527.472095,209.065502 1517.688897,208.983919"/>
    <poly id="1035888612" type="building" color="255,230,230" fill="1" layer="-1.00" shape="1558.962356,205.426404 1558.797091,215.619214 1536.686502,215.242023 1536.852078,205.159998 1558.962356,205.426404"/>
    <poly id="1035888613" type="building" color="255,230,230" fill="1" layer="-1.00" shape="1567.571942,205.622306 1585.670581,205.679150 1585.603452,215.982453 1567.504829,215.925609 1567.571942,205.622306"/>
    <poly id="1035888614" type="building" color="255,230,230" fill="1" layer="-1.00" shape="1594.097380,210.196272 1593.647651,190.588481 1604.212833,190.446226 1604.564386,209.943524 1594.097380,210.196272"/>
    <poly id="1035888615" type="building" color="255,230,230" fill="1" layer="-1.00" shape="1568.019802,191.772714 1567.989748,181.691273 1585.794277,181.527422 1585.922145,191.608572 1568.019802,191.772714"/>
    <poly id="1035888616" type="building" color="255,230,230" fill="1" layer="-1.00" shape="1536.908256,191.200787 1537.075155,181.561902 1559.087979,181.939386 1558.921062,191.578270 1536.908256,191.200787"/>
    <poly id="1035888617" type="building" color="255,230,230" fill="1" layer="-1.00" shape="1637.250958,180.931069 1653.002399,181.216573 1652.744494,193.182233 1637.090898,192.896438 1637.250958,180.931069"/>
    <poly id="1035888618" type="building" color="255,230,230" fill="1" layer="-1.00" shape="1651.327776,177.344042 1637.924883,177.273124 1638.004584,171.179655 1640.645966,171.171797 1640.621907,163.084487 1655.100935,163.152208 1655.033085,173.233939 1651.315255,173.134210 1651.327776,177.344042"/>
    <poly id="1035888619" type="building" color="255,230,230" fill="1" layer="-1.00" shape="1637.445363,213.390801 1637.704570,201.868281 1654.141113,202.262535 1653.881890,213.785054 1637.445363,213.390801"/>
    <poly id="1035888620" type="building" color="255,230,230" fill="1" layer="-1.00" shape="1652.228688,217.113552 1652.664481,232.068372 1636.915086,232.447580 1636.479273,217.492760 1652.228688,217.113552"/>
    <poly id="1035888621" type="building" color="255,230,230" fill="1" layer="-1.00" shape="1652.916478,251.012037 1636.382504,250.728863 1636.630171,235.328865 1653.164167,235.612040 1652.916478,251.012037"/>
    <poly id="1035888622" type="building" color="255,230,230" fill="1" layer="-1.00" shape="1678.067948,221.246604 1671.220607,221.488527 1671.000911,213.401799 1677.750428,213.160166 1678.067948,221.246604"/>
    <poly id="1035888623" type="building" color="255,230,230" fill="1" layer="-1.00" shape="1682.457724,217.023690 1682.528559,207.939024 1691.333468,208.023650 1691.421424,204.699808 1698.465419,204.789670 1698.220302,221.075946 1690.785002,220.987246 1690.871641,217.220263 1682.457724,217.023690"/>
    <poly id="1035888624" type="building" color="255,230,230" fill="1" layer="-1.00" shape="1697.988677,241.904410 1688.498336,241.600243 1688.676219,235.617269 1682.121056,235.415173 1682.483401,225.664925 1698.431095,226.171478 1697.988677,241.904410"/>
    <poly id="1035888625" type="building" color="255,230,230" fill="1" layer="-1.00" shape="1649.415977,159.513176 1639.827739,159.209339 1640.278653,146.356817 1649.866572,146.549869 1649.415977,159.513176"/>
    <poly id="1035888626" type="building" color="255,230,230" fill="1" layer="-1.00" shape="1650.305307,129.598301 1649.944303,139.791690 1640.160390,139.488434 1640.423556,129.295336 1650.305307,129.598301"/>
    <poly id="1035888627" type="building" color="255,230,230" fill="1" layer="-1.00" shape="1638.699813,108.915834 1647.895456,108.777695 1648.008773,113.984301 1653.486893,113.857223 1653.612066,123.052091 1638.938319,123.317309 1638.699813,108.915834"/>
    <poly id="1035888628" type="building" color="255,230,230" fill="1" layer="-1.00" shape="1641.894572,97.606155 1642.169605,91.401320 1654.791276,91.917710 1654.423678,99.895398 1648.748574,99.579917 1648.567083,104.344256 1638.293334,103.820886 1638.568036,97.505265 1641.894572,97.606155"/>
    <poly id="1035888629" type="building" color="255,230,230" fill="1" layer="-1.00" shape="1654.151588,74.193849 1654.481645,86.490116 1645.188484,86.739326 1644.866326,77.101900 1638.507721,77.231602 1638.296571,72.025287 1647.883233,71.775198 1647.988971,74.433748 1654.151588,74.193849"/>
    <poly id="1035888633" type="building" color="255,230,230" fill="1" layer="-1.00" shape="1682.418142,72.004892 1682.864170,57.490599 1687.658495,57.697927 1687.745463,54.041730 1696.355157,54.237727 1695.822141,72.408217 1682.418142,72.004892"/>
    <poly id="1035888634" type="building" color="255,230,230" fill="1" layer="-1.00" shape="1638.340019,53.745463 1651.156732,54.039699 1650.805937,67.667423 1640.826304,67.364748 1641.092440,58.168716 1638.157213,58.066662 1638.340019,53.745463"/>
    <poly id="1035888640" type="building" color="255,230,230" fill="1" layer="-1.00" shape="1778.465668,64.518812 1782.867683,64.394983 1782.752130,58.412881 1799.089068,58.142919 1799.321799,70.661048 1778.582866,71.054839 1778.465668,64.518812"/>
    <poly id="1035888641" type="building" color="255,230,230" fill="1" layer="-1.00" shape="1784.971669,81.117437 1795.048458,81.198374 1794.975565,89.618327 1797.127817,89.611953 1797.045080,94.708354 1784.717893,94.523296 1784.971669,81.117437"/>
    <poly id="1035888642" type="building" color="255,230,230" fill="1" layer="-1.00" shape="1799.524611,106.111970 1795.317614,106.013643 1795.143283,113.215250 1786.827123,113.018311 1787.175120,98.393527 1799.698290,98.688793 1799.524611,106.111970"/>
    <poly id="1035888644" type="building" color="255,230,230" fill="1" layer="-1.00" shape="1312.067023,149.110398 1321.459291,149.303769 1320.864621,179.328582 1311.374548,179.135505 1312.067023,149.110398"/>
    <poly id="1035888645" type="water" color="181,209,209" fill="0" layer="-4.00" shape="1399.377304,1000.328571 1389.672511,947.856080 1390.024808,915.261729"/>
    <poly id="1035888646" type="water" color="181,209,209" fill="0" layer="-4.00" shape="1405.434891,854.172370 1424.430966,798.168466"/>
    <poly id="1035888647" type="water" color="181,209,209" fill="0" layer="-4.00" shape="1424.430966,798.168466 1437.522418,759.786188 1468.089513,719.457215 1488.062952,646.611015 1490.364602,572.233412 1489.168711,486.311278"/>
    <poly id="1035888648" type="water" color="181,209,209" fill="0" layer="-4.00" shape="1489.168711,486.311278 1488.970278,472.286350"/>
    <poly id="1035888649" type="water" color="181,209,209" fill="0" layer="-4.00" shape="1512.636758,1203.393194 1513.779279,1127.401525 1512.731708,1120.558067"/>
    <poly id="1035888650" type="water" color="181,209,209" fill="0" layer="-4.00" shape="1512.731708,1120.558067 1490.260718,1097.216084"/>
    <poly id="1035888651" type="water" color="181,209,209" fill="0" layer="-4.00" shape="1490.260718,1097.216084 1463.977882,1074.982328 1421.335939,1045.186596 1407.084317,1022.706449"/>
    <poly id="1035888652" type="water" color="181,209,209" fill="0" layer="-4.00" shape="1407.084317,1022.706449 1399.377304,1000.328571"/>
    <poly id="1035888655" type="water" color="181,209,209" fill="0" layer="-4.00" shape="1390.024808,915.261729 1398.733867,877.003320 1405.434891,854.172370"/>
    <poly id="1036121477" type="building" color="255,230,230" fill="1" layer="-1.00" shape="2417.092382,295.848310 2367.295089,294.996198 2367.543713,279.596224 2372.337608,279.693046 2372.349225,283.681307 2376.653979,283.779555 2376.738901,279.347869 2383.782841,279.438143 2408.632446,279.808958 2408.546866,284.019073 2412.558136,284.118189 2412.643072,279.686503 2417.339138,279.783628 2417.092382,295.848310"/>
    <poly id="1036121478" type="building" color="255,230,230" fill="1" layer="-1.00" shape="2411.675274,249.666324 2382.718108,249.750605 2367.515919,249.905666 2367.799804,233.176159 2399.887520,233.082730 2399.889777,233.858225 2411.629184,233.824066 2411.675274,249.666324"/>
    <poly id="1036121479" type="building" color="255,230,230" fill="1" layer="-1.00" shape="2336.234549,278.247255 2337.857530,230.936914 2344.510509,231.139091 2344.423983,235.016852 2348.826907,235.225590 2348.736828,237.884716 2353.628892,238.092030 2352.535087,279.019554 2336.234549,278.247255"/>
    <poly id="1036121484" type="building" color="255,230,230" fill="1" layer="-1.00" shape="2304.134853,240.673663 2271.361386,240.436999 2271.431706,231.019986 2304.205522,231.367436 2304.134853,240.673663"/>
    <poly id="1036121485" type="building" color="255,230,230" fill="1" layer="-1.00" shape="2267.382791,251.527220 2234.510553,250.958590 2234.678671,241.541290 2267.453108,242.110207 2267.382791,251.527220"/>
    <poly id="1036121486" type="building" color="255,230,230" fill="1" layer="-1.00" shape="2251.694291,272.733188 2241.715179,272.540789 2242.157677,256.586314 2252.136802,256.778714 2251.694291,272.733188"/>
    <poly id="1036121487" type="building" color="255,230,230" fill="1" layer="-1.00" shape="2303.783450,287.869513 2303.614954,297.176027 2261.644529,296.523094 2261.812992,287.216579 2303.783450,287.869513"/>
    <poly id="1036121488" type="building" color="255,230,230" fill="1" layer="-1.00" shape="2296.620341,280.467761 2287.130701,280.384681 2287.328757,247.702240 2296.915929,247.674250 2296.620341,280.467761"/>
    <poly id="1036121489" type="building" color="255,230,230" fill="1" layer="-1.00" shape="2258.096825,287.670583 2225.030651,287.656478 2225.003429,278.350535 2258.069952,278.475425 2258.096825,287.670583"/>
    <poly id="1036121490" type="building" color="255,230,230" fill="1" layer="-1.00" shape="2183.384283,287.434942 2216.452144,288.025012 2216.322200,297.109843 2183.254364,296.519773 2183.384283,287.434942"/>
    <poly id="1036121491" type="building" color="255,230,230" fill="1" layer="-1.00" shape="2137.399866,295.778954 2137.568880,286.694006 2179.245868,287.347355 2179.076821,296.432302 2137.399866,295.778954"/>
    <poly id="1036121492" type="building" color="255,230,230" fill="1" layer="-1.00" shape="2142.341377,249.466996 2151.929101,249.627222 2151.622989,272.017968 2142.035283,271.857742 2142.341377,249.466996"/>
    <poly id="1036121493" type="building" color="255,230,230" fill="1" layer="-1.00" shape="2156.402918,270.685603 2156.473145,261.268588 2198.442733,261.588791 2198.372473,271.005806 2156.402918,270.685603"/>
    <poly id="1036121494" type="building" color="255,230,230" fill="1" layer="-1.00" shape="2212.365781,272.294280 2203.756910,272.319476 2203.633362,230.110378 2212.242265,230.085183 2212.365781,272.294280"/>
    <poly id="1036121495" type="building" color="255,230,230" fill="1" layer="-1.00" shape="2142.685593,230.067360 2151.489828,229.930761 2151.618834,240.565838 2142.814606,240.702436 2142.685593,230.067360"/>
    <poly id="1036123001" type="building" color="255,230,230" fill="1" layer="-1.00" shape="2198.745507,231.343332 2198.675570,240.871131 2156.999393,240.550066 2157.069296,231.022266 2198.745507,231.343332"/>
    <poly id="1036123002" type="building" color="255,230,230" fill="1" layer="-1.00" shape="2101.203729,229.302779 2100.479392,282.482184 2087.369788,282.299107 2088.094065,229.119701 2101.203729,229.302779"/>
    <poly id="1036123003" type="building" color="255,230,230" fill="1" layer="-1.00" shape="2078.529926,303.595986 2098.683762,303.979940 2098.512502,312.289393 2092.349027,312.196705 2092.259984,315.188189 2085.215735,314.987305 2085.207926,312.328464 2078.359657,312.237795 2078.529926,303.595986"/>
    <poly id="1036123004" type="building" color="255,230,230" fill="1" layer="-1.00" shape="2081.355346,332.945978 2098.182343,333.118132 2098.015963,343.089361 2081.286808,342.916920 2081.355346,332.945978"/>
    <poly id="1036123005" type="building" color="255,230,230" fill="1" layer="-1.00" shape="2190.727241,332.846774 2190.394649,352.900013 2178.067745,352.714544 2178.400316,332.661304 2190.727241,332.846774"/>
    <poly id="1036123006" type="building" color="255,230,230" fill="1" layer="-1.00" shape="2161.475071,365.725124 2160.788887,398.630580 2138.482697,398.142047 2139.168819,365.236590 2161.475071,365.725124"/>
    <poly id="1036123007" type="building" color="255,230,230" fill="1" layer="-1.00" shape="2190.188109,382.591267 2185.785562,382.493374 2185.631439,396.674434 2177.413642,396.587718 2177.537574,372.103648 2190.255442,372.177185 2190.188109,382.591267"/>
    <poly id="1036123008" type="building" color="255,230,230" fill="1" layer="-1.00" shape="2205.771814,392.516383 2197.260208,392.319728 2197.427969,382.791640 2193.221076,382.693172 2193.580271,371.724305 2206.298787,372.019430 2205.771814,392.516383"/>
    <poly id="1036123009" type="building" color="255,230,230" fill="1" layer="-1.00" shape="2212.170128,406.013549 2212.423083,392.164558 2221.325672,392.249295 2221.072707,406.098285 2212.170128,406.013549"/>
    <poly id="1036123010" type="building" color="255,230,230" fill="1" layer="-1.00" shape="2224.474612,398.554885 2224.012327,374.294103 2235.750947,374.038196 2235.634005,367.502164 2241.307988,367.485572 2241.889768,399.168667 2235.237854,399.298904 2235.234938,398.301839 2224.474612,398.554885"/>
    <poly id="1036123011" type="building" color="255,230,230" fill="1" layer="-1.00" shape="2206.477482,332.800664 2206.236205,350.637915 2193.224183,350.343650 2193.465765,332.617183 2206.477482,332.800664"/>
    <poly id="1036123012" type="building" color="255,230,230" fill="1" layer="-1.00" shape="2229.128797,350.903291 2208.682215,350.741542 2208.825344,332.793792 2229.271957,332.955541 2229.128797,350.903291"/>
    <poly id="1036123013" type="building" color="255,230,230" fill="1" layer="-1.00" shape="2231.185117,351.561992 2231.326336,332.949532 2243.163797,333.025702 2243.022559,351.638162 2231.185117,351.561992"/>
    <poly id="1036123014" type="building" color="255,230,230" fill="1" layer="-1.00" shape="2257.926696,329.880541 2257.564525,339.852338 2248.172112,339.547434 2248.616557,324.257668 2260.944136,324.664781 2260.764020,329.983035 2257.926696,329.880541"/>
    <poly id="1036123015" type="building" color="255,230,230" fill="1" layer="-1.00" shape="2269.858427,328.737816 2278.173127,328.491956 2278.497673,339.126463 2270.085153,339.372609 2269.858427,328.737816"/>
    <poly id="1036123016" type="building" color="255,230,230" fill="1" layer="-1.00" shape="2258.538817,405.434800 2250.810810,405.568173 2250.463247,387.067928 2256.234723,386.940272 2256.347769,392.146883 2261.239123,392.132588 2261.350871,396.896060 2269.665846,396.760978 2269.780180,402.410730 2258.530399,402.554388 2258.538817,405.434800"/>
    <poly id="1036123017" type="building" color="255,230,230" fill="1" layer="-1.00" shape="2292.279743,402.123445 2279.660060,402.160297 2279.535053,392.854639 2292.154422,392.707002 2292.279743,402.123445"/>
    <poly id="1036123018" type="building" color="255,230,230" fill="1" layer="-1.00" shape="2310.481384,404.064465 2300.502385,403.872017 2300.658587,390.355670 2310.637274,390.437333 2310.481384,404.064465"/>
    <poly id="1036123019" type="building" color="255,230,230" fill="1" layer="-1.00" shape="2358.979677,395.724879 2359.423295,380.102762 2371.261351,380.400631 2370.817717,396.022747 2358.979677,395.724879"/>
    <poly id="1036123020" type="building" color="255,230,230" fill="1" layer="-1.00" shape="2374.484808,378.729452 2386.322865,379.027337 2385.977038,394.649167 2374.138997,394.351283 2374.484808,378.729452"/>
    <poly id="1036123021" type="building" color="255,230,230" fill="1" layer="-1.00" shape="2389.750042,380.125218 2401.294293,380.313187 2400.949414,396.267372 2389.405178,396.079404 2389.750042,380.125218"/>
    <poly id="1036123022" type="building" color="255,230,230" fill="1" layer="-1.00" shape="2413.206479,406.091658 2405.771631,406.113291 2405.620611,387.834043 2413.055471,387.812410 2413.206479,406.091658"/>
    <poly id="1036123026" type="building" color="255,230,230" fill="1" layer="-1.00" shape="2355.190896,404.820371 2343.451014,404.633018 2343.604682,390.230392 2355.442406,390.417460 2355.190896,404.820371"/>
    <poly id="1036123027" type="building" color="255,230,230" fill="1" layer="-1.00" shape="2336.946625,388.255656 2328.827621,388.500904 2328.487612,372.548714 2336.606950,372.414250 2336.946625,388.255656"/>
    <poly id="1036123028" type="building" color="255,230,230" fill="1" layer="-1.00" shape="2384.955630,346.238668 2376.150513,346.042737 2376.501492,332.193468 2385.306619,332.389399 2384.955630,346.238668"/>
    <poly id="1036123041" type="building" color="255,230,230" fill="1" layer="-1.00" shape="2165.105951,202.637502 2135.168752,202.171335 2135.502233,182.450452 2150.764507,182.738059 2150.674473,185.397186 2165.349769,185.686533 2165.105951,202.637502"/>
    <poly id="1036123042" type="building" color="255,230,230" fill="1" layer="-1.00" shape="2213.977752,154.524070 2203.998862,154.442488 2204.325977,132.505909 2214.304885,132.587492 2213.977752,154.524070"/>
    <poly id="1036123043" type="building" color="255,230,230" fill="1" layer="-1.00" shape="2191.563866,150.822953 2184.814631,151.175075 2184.284281,137.106810 2191.033524,136.754688 2191.563866,150.822953"/>
    <poly id="1036123044" type="building" color="255,230,230" fill="1" layer="-1.00" shape="2230.965990,142.841848 2219.031480,143.098330 2218.908369,134.457384 2223.016873,134.334579 2223.012012,132.672804 2230.740199,132.539414 2230.965990,142.841848"/>
    <poly id="1036123045" type="building" color="255,230,230" fill="1" layer="-1.00" shape="2235.865223,145.486384 2235.439891,133.855101 2245.711313,133.603498 2246.038806,145.235067 2235.865223,145.486384"/>
    <poly id="1036123046" type="building" color="255,230,230" fill="1" layer="-1.00" shape="2262.831107,133.442678 2263.064314,146.293168 2253.575212,146.431684 2253.439823,133.580908 2262.831107,133.442678"/>
    <poly id="1036123047" type="building" color="255,230,230" fill="1" layer="-1.00" shape="2279.074967,134.835444 2278.726035,149.349424 2266.202615,148.942862 2266.649684,134.539381 2279.074967,134.835444"/>
    <poly id="1036123048" type="building" color="255,230,230" fill="1" layer="-1.00" shape="2299.511575,131.452199 2307.436391,131.650643 2307.093567,148.269536 2299.169085,148.181877 2299.511575,131.452199"/>
    <poly id="1036123049" type="building" color="255,230,230" fill="1" layer="-1.00" shape="2293.196334,146.426737 2282.141966,146.569799 2281.909750,134.051664 2292.866301,133.908887 2293.196334,146.426737"/>
    <poly id="1036123050" type="building" color="255,230,230" fill="1" layer="-1.00" shape="2307.878910,182.721677 2307.634563,199.561857 2298.144533,199.367982 2298.575794,179.536036 2304.054533,179.630831 2303.965434,182.622312 2307.878910,182.721677"/>
    <poly id="1036132612" type="building" color="255,230,230" fill="1" layer="-1.00" shape="2085.315058,82.336435 2086.236966,29.821178 2105.412645,30.097236 2104.490977,82.723276 2085.315058,82.336435"/>