<?xml version="1.0" encoding="UTF-8"?>

<!-- generated on 2025-04-10 19:35:26 by Eclipse SUMO netedit Version 1.22.0
<neteditConfiguration xmlns:xsi="http://www.w3.org/2001/XMLSchema-instance" xsi:noNamespaceSchemaLocation="http://sumo.dlr.de/xsd/neteditConfiguration.xsd">

    <input>
        <sumocfg-file value="C:\Users\HP\Downloads\Rerouting\Real World _ 2\real_word_3.sumocfg"/>
        <additional-files value="C:\Users\HP\Downloads\Rerouting\Real World _ 2\map3.poly.xml"/>
        <route-files value="C:\Users\HP\Downloads\Rerouting\Real World _ 2\real_word_3.rou.xml"/>
        <sumo-net-file value="C:\Users\HP\Downloads\Rerouting\Real World _ 2\network3.net.xml"/>
    </input>

    <output>
        <output-file value="C:\Users\HP\Downloads\Rerouting\Real World _ 2\network3.net.xml"/>
    </output>

    <processing>
        <geometry.min-radius.fix.railways value="false"/>
        <geometry.max-grade.fix value="false"/>
        <offset.disable-normalization value="true"/>
        <lefthand value="0"/>
    </processing>

    <junctions>
        <no-turnarounds value="true"/>
        <junctions.corner-detail value="5"/>
        <junctions.limit-turn-speed value="5.50"/>
        <rectangular-lane-cut value="0"/>
    </junctions>

    <pedestrian>
        <walkingareas value="0"/>
    </pedestrian>

</neteditConfiguration>
-->

<net version="1.20" junctionCornerDetail="5" limitTurnSpeed="5.50" xmlns:xsi="http://www.w3.org/2001/XMLSchema-instance" xsi:noNamespaceSchemaLocation="http://sumo.dlr.de/xsd/net_file.xsd">

    <location netOffset="-463458.33,-3156914.01" convBoundary="0.00,0.00,2908.46,1620.14" origBoundary="-81.373533,28.538521,-81.343806,28.553149" projParameter="+proj=utm +zone=17 +ellps=WGS84 +datum=WGS84 +units=m +no_defs"/>

    <type id="highway.footway" priority="1" numLanes="1" speed="2.78" allow="pedestrian" oneway="1" width="2.00"/>
    <type id="highway.residential" priority="3" numLanes="1" speed="13.89" disallow="tram rail_urban rail rail_electric rail_fast ship container cable_car subway aircraft wheelchair scooter drone" oneway="0"/>
    <type id="highway.secondary" priority="11" numLanes="1" speed="27.78" disallow="tram rail_urban rail rail_electric rail_fast ship container cable_car subway aircraft wheelchair scooter drone" oneway="0"/>
    <type id="highway.secondary_link" priority="6" numLanes="1" speed="22.22" disallow="tram rail_urban rail rail_electric rail_fast ship container cable_car subway aircraft wheelchair scooter drone" oneway="0"/>
    <type id="highway.service" priority="1" numLanes="1" speed="5.56" allow="pedestrian delivery bicycle" oneway="0"/>
    <type id="highway.tertiary" priority="10" numLanes="1" speed="22.22" disallow="tram rail_urban rail rail_electric rail_fast ship container cable_car subway aircraft wheelchair scooter drone" oneway="0"/>

    <edge id=":10097411647_0" function="internal">
        <lane id=":10097411647_0_0" index="0" allow="pedestrian delivery bicycle" speed="3.65" length="4.67" shape="954.58,751.25 954.06,752.59 953.36,753.15 952.49,752.93 951.46,751.93"/>
    </edge>
    <edge id=":10175586806_0" function="internal">
        <lane id=":10175586806_0_0" index="0" allow="pedestrian delivery bicycle" speed="4.85" length="4.53" shape="2126.07,100.24 2124.97,100.44 2124.18,101.02 2123.71,101.98 2123.55,103.33"/>
    </edge>
    <edge id=":10175586806_1" function="internal">
        <lane id=":10175586806_1_0" index="0" allow="pedestrian delivery bicycle" speed="7.41" length="12.08" shape="2126.07,100.24 2122.17,99.87 2119.40,98.75 2117.73,96.88 2117.19,94.27"/>
    </edge>
    <edge id=":10175586806_2" function="internal">
        <lane id=":10175586806_2_0" index="0" allow="pedestrian delivery bicycle" speed="3.65" length="4.67" shape="2126.07,100.24 2124.87,99.44 2124.47,98.64 2124.87,97.84 2126.07,97.04"/>
    </edge>
    <edge id=":10175586806_3" function="internal">
        <lane id=":10175586806_3_0" index="0" allow="pedestrian delivery bicycle" speed="4.70" length="4.22" shape="2123.59,94.29 2123.74,95.50 2124.20,96.36 2124.98,96.87 2126.07,97.04"/>
    </edge>
    <edge id=":10175586806_4" function="internal">
        <lane id=":10175586806_4_0" index="0" disallow="tram rail_urban rail rail_electric rail_fast ship container cable_car subway aircraft wheelchair scooter drone" speed="22.22" length="9.04" shape="2123.59,94.29 2123.55,103.33"/>
        <lane id=":10175586806_4_1" index="1" disallow="tram rail_urban rail rail_electric rail_fast ship container cable_car subway aircraft wheelchair scooter drone" speed="22.22" length="9.04" shape="2120.39,94.28 2120.35,103.32"/>
    </edge>
    <edge id=":10175586806_6" function="internal">
        <lane id=":10175586806_6_0" index="0" disallow="tram rail_urban rail rail_electric rail_fast ship container cable_car subway aircraft wheelchair scooter drone" speed="22.22" length="9.03" shape="2113.95,103.28 2113.99,94.25"/>
        <lane id=":10175586806_6_1" index="1" disallow="tram rail_urban rail rail_electric rail_fast ship container cable_car subway aircraft wheelchair scooter drone" speed="22.22" length="9.03" shape="2117.15,103.30 2117.19,94.27"/>
    </edge>
    <edge id=":10175586806_8" function="internal">
        <lane id=":10175586806_8_0" index="0" allow="pedestrian delivery bicycle" speed="7.51" length="2.79" shape="2117.15,103.30 2117.72,100.57"/>
    </edge>
    <edge id=":10175586806_9" function="internal">
        <lane id=":10175586806_9_0" index="0" allow="pedestrian delivery bicycle" speed="7.51" length="9.51" shape="2117.72,100.57 2119.39,98.61 2122.18,97.44 2126.07,97.04"/>
    </edge>
    <edge id=":10175586807_0" function="internal">
        <lane id=":10175586807_0_0" index="0" allow="pedestrian delivery bicycle" speed="5.56" length="4.45" shape="2130.72,100.25 2126.27,100.24"/>
    </edge>
    <edge id=":10175586807_1" function="internal">
        <lane id=":10175586807_1_0" index="0" allow="pedestrian delivery bicycle" speed="3.65" length="1.44" shape="2130.72,100.25 2129.52,99.45"/>
    </edge>
    <edge id=":10175586807_4" function="internal">
        <lane id=":10175586807_4_0" index="0" allow="pedestrian delivery bicycle" speed="3.65" length="3.23" shape="2129.52,99.45 2129.13,98.65 2129.53,97.85 2130.73,97.05"/>
    </edge>
    <edge id=":10175586807_2" function="internal">
        <lane id=":10175586807_2_0" index="0" allow="pedestrian delivery bicycle" speed="5.56" length="4.47" shape="2126.27,97.04 2130.73,97.05"/>
    </edge>
    <edge id=":10175586807_3" function="internal">
        <lane id=":10175586807_3_0" index="0" allow="pedestrian delivery bicycle" speed="3.65" length="1.44" shape="2126.27,97.04 2127.47,97.84"/>
    </edge>
    <edge id=":10175586807_5" function="internal">
        <lane id=":10175586807_5_0" index="0" allow="pedestrian delivery bicycle" speed="3.65" length="3.23" shape="2127.47,97.84 2127.87,98.64 2127.47,99.44 2126.27,100.24"/>
    </edge>
    <edge id=":10175586809_0" function="internal">
        <lane id=":10175586809_0_0" index="0" disallow="tram rail_urban rail rail_electric rail_fast ship container cable_car subway aircraft wheelchair scooter drone" speed="13.89" length="9.40" shape="2166.64,117.43 2157.24,117.41"/>
    </edge>
    <edge id=":10175586809_1" function="internal">
        <lane id=":10175586809_1_0" index="0" allow="pedestrian delivery bicycle" speed="6.86" length="3.27" shape="2166.64,117.43 2163.88,117.03 2163.47,116.78"/>
    </edge>
    <edge id=":10175586809_7" function="internal">
        <lane id=":10175586809_7_0" index="0" allow="pedestrian delivery bicycle" speed="6.86" length="6.91" shape="2163.47,116.78 2161.91,115.84 2160.73,113.87 2160.35,111.11"/>
    </edge>
    <edge id=":10175586809_2" function="internal">
        <lane id=":10175586809_2_0" index="0" allow="pedestrian delivery bicycle" speed="5.04" length="5.00" shape="2163.55,111.12 2163.74,112.48 2164.32,113.45 2165.28,114.03 2166.64,114.23"/>
    </edge>
    <edge id=":10175586809_3" function="internal">
        <lane id=":10175586809_3_0" index="0" allow="pedestrian delivery bicycle" speed="6.87" length="10.16" shape="2163.55,111.12 2163.15,113.88 2161.96,115.84 2159.99,117.02 2157.24,117.41"/>
    </edge>
    <edge id=":10175586809_4" function="internal">
        <lane id=":10175586809_4_0" index="0" allow="pedestrian delivery bicycle" speed="3.65" length="4.67" shape="2163.55,111.12 2162.74,112.32 2161.94,112.71 2161.14,112.31 2160.35,111.11"/>
    </edge>
    <edge id=":10175586809_5" function="internal">
        <lane id=":10175586809_5_0" index="0" allow="pedestrian delivery bicycle" speed="5.05" length="5.01" shape="2157.24,114.21 2158.60,114.02 2159.57,113.44 2160.15,112.47 2160.35,111.11"/>
    </edge>
    <edge id=":10175586809_6" function="internal">
        <lane id=":10175586809_6_0" index="0" disallow="tram rail_urban rail rail_electric rail_fast ship container cable_car subway aircraft wheelchair scooter drone" speed="13.89" length="9.40" shape="2157.24,114.21 2166.64,114.23"/>
    </edge>
    <edge id=":10175586810_0" function="internal">
        <lane id=":10175586810_0_0" index="0" allow="pedestrian delivery bicycle" speed="4.86" length="4.60" shape="2126.25,81.47 2125.11,81.65 2124.30,82.22 2123.81,83.19 2123.64,84.55"/>
    </edge>
    <edge id=":10175586810_1" function="internal">
        <lane id=":10175586810_1_0" index="0" allow="pedestrian delivery bicycle" speed="7.54" length="12.39" shape="2126.25,81.47 2122.32,81.03 2119.51,79.82 2117.83,77.85 2117.28,75.12"/>
    </edge>
    <edge id=":10175586810_2" function="internal">
        <lane id=":10175586810_2_0" index="0" allow="pedestrian delivery bicycle" speed="3.65" length="4.67" shape="2126.25,81.47 2125.06,80.65 2124.67,79.85 2125.08,79.05 2126.29,78.27"/>
    </edge>
    <edge id=":10175586810_3" function="internal">
        <lane id=":10175586810_3_0" index="0" allow="pedestrian delivery bicycle" speed="4.89" length="4.62" shape="2123.68,75.15 2123.84,76.50 2124.33,77.47 2125.15,78.06 2126.29,78.27"/>
    </edge>
    <edge id=":10175586810_4" function="internal">
        <lane id=":10175586810_4_0" index="0" disallow="tram rail_urban rail rail_electric rail_fast ship container cable_car subway aircraft wheelchair scooter drone" speed="22.22" length="9.40" shape="2123.68,75.15 2123.64,84.55"/>
        <lane id=":10175586810_4_1" index="1" disallow="tram rail_urban rail rail_electric rail_fast ship container cable_car subway aircraft wheelchair scooter drone" speed="22.22" length="9.40" shape="2120.48,75.13 2120.44,84.53"/>
    </edge>
    <edge id=":10175586810_6" function="internal">
        <lane id=":10175586810_6_0" index="0" disallow="tram rail_urban rail rail_electric rail_fast ship container cable_car subway aircraft wheelchair scooter drone" speed="22.22" length="9.40" shape="2114.04,84.50 2114.08,75.10"/>
        <lane id=":10175586810_6_1" index="1" disallow="tram rail_urban rail rail_electric rail_fast ship container cable_car subway aircraft wheelchair scooter drone" speed="22.22" length="9.40" shape="2117.24,84.52 2117.28,75.12"/>
    </edge>
    <edge id=":10175586810_8" function="internal">
        <lane id=":10175586810_8_0" index="0" allow="pedestrian delivery bicycle" speed="7.51" length="2.84" shape="2117.24,84.52 2117.81,81.74"/>
    </edge>
    <edge id=":10175586810_9" function="internal">
        <lane id=":10175586810_9_0" index="0" allow="pedestrian delivery bicycle" speed="7.51" length="9.62" shape="2117.81,81.74 2119.52,79.77 2122.34,78.62 2126.29,78.27"/>
    </edge>
    <edge id=":10175586811_0" function="internal">
        <lane id=":10175586811_0_0" index="0" allow="pedestrian delivery bicycle" speed="5.56" length="4.49" shape="2130.94,81.53 2126.45,81.47"/>
    </edge>
    <edge id=":10175586811_1" function="internal">
        <lane id=":10175586811_1_0" index="0" allow="pedestrian delivery bicycle" speed="3.65" length="1.44" shape="2130.94,81.53 2129.75,80.72"/>
    </edge>
    <edge id=":10175586811_4" function="internal">
        <lane id=":10175586811_4_0" index="0" allow="pedestrian delivery bicycle" speed="3.65" length="3.23" shape="2129.75,80.72 2129.36,79.91 2129.77,79.12 2130.98,78.33"/>
    </edge>
    <edge id=":10175586811_2" function="internal">
        <lane id=":10175586811_2_0" index="0" allow="pedestrian delivery bicycle" speed="5.56" length="4.49" shape="2126.49,78.27 2130.98,78.33"/>
    </edge>
    <edge id=":10175586811_3" function="internal">
        <lane id=":10175586811_3_0" index="0" allow="pedestrian delivery bicycle" speed="3.65" length="1.44" shape="2126.49,78.27 2127.68,79.09"/>
    </edge>
    <edge id=":10175586811_5" function="internal">
        <lane id=":10175586811_5_0" index="0" allow="pedestrian delivery bicycle" speed="3.65" length="3.23" shape="2127.68,79.09 2128.07,79.89 2127.66,80.69 2126.45,81.47"/>
    </edge>
    <edge id=":10175586812_0" function="internal">
        <lane id=":10175586812_0_0" index="0" allow="pedestrian delivery bicycle" speed="3.65" length="4.67" shape="2157.75,78.69 2158.94,79.51 2159.33,80.31 2158.92,81.11 2157.71,81.89"/>
    </edge>
    <edge id=":10902215170_0" function="internal">
        <lane id=":10902215170_0_0" index="0" disallow="tram rail_urban rail rail_electric rail_fast ship container cable_car subway aircraft wheelchair scooter drone" speed="22.22" length="9.40" shape="1582.33,479.45 1572.93,479.33"/>
    </edge>
    <edge id=":10902215170_1" function="internal">
        <lane id=":10902215170_1_0" index="0" allow="pedestrian delivery bicycle" speed="6.90" length="3.23" shape="1582.33,479.45 1579.60,479.02 1579.20,478.77"/>
    </edge>
    <edge id=":10902215170_7" function="internal">
        <lane id=":10902215170_7_0" index="0" allow="pedestrian delivery bicycle" speed="6.90" length="6.93" shape="1579.20,478.77 1577.66,477.81 1576.48,475.82 1576.09,473.04"/>
    </edge>
    <edge id=":10902215170_2" function="internal">
        <lane id=":10902215170_2_0" index="0" allow="pedestrian delivery bicycle" speed="5.09" length="5.06" shape="1579.29,473.04 1579.48,474.43 1580.06,475.43 1581.03,476.04 1582.37,476.25"/>
    </edge>
    <edge id=":10902215170_3" function="internal">
        <lane id=":10902215170_3_0" index="0" allow="pedestrian delivery bicycle" speed="6.85" length="10.24" shape="1579.29,473.04 1578.90,475.82 1577.71,477.80 1575.72,478.97 1572.93,479.33"/>
    </edge>
    <edge id=":10902215170_4" function="internal">
        <lane id=":10902215170_4_0" index="0" allow="pedestrian delivery bicycle" speed="3.65" length="4.67" shape="1579.29,473.04 1578.49,474.24 1577.69,474.64 1576.89,474.24 1576.09,473.04"/>
    </edge>
    <edge id=":10902215170_5" function="internal">
        <lane id=":10902215170_5_0" index="0" allow="pedestrian delivery bicycle" speed="5.02" length="5.02" shape="1572.97,476.13 1574.34,475.95 1575.31,475.38 1575.90,474.41 1576.09,473.04"/>
    </edge>
    <edge id=":10902215170_6" function="internal">
        <lane id=":10902215170_6_0" index="0" disallow="tram rail_urban rail rail_electric rail_fast ship container cable_car subway aircraft wheelchair scooter drone" speed="22.22" length="9.40" shape="1572.97,476.13 1582.37,476.25"/>
    </edge>
    <edge id=":10902215171_0" function="internal">
        <lane id=":10902215171_0_0" index="0" allow="pedestrian delivery bicycle" speed="3.65" length="4.67" shape="1575.91,443.13 1576.70,441.93 1577.50,441.52 1578.30,441.91 1579.11,443.11"/>
    </edge>
    <edge id=":10902215172_0" function="internal">
        <lane id=":10902215172_0_0" index="0" allow="pedestrian delivery bicycle" speed="5.56" length="9.37" shape="1576.07,466.15 1576.02,456.77"/>
    </edge>
    <edge id=":10902215172_1" function="internal">
        <lane id=":10902215172_1_0" index="0" allow="pedestrian delivery bicycle" speed="5.56" length="10.21" shape="1576.07,466.15 1576.46,463.37 1577.65,461.40 1579.63,460.22 1582.41,459.85"/>
    </edge>
    <edge id=":10902215172_2" function="internal">
        <lane id=":10902215172_2_0" index="0" allow="pedestrian delivery bicycle" speed="3.65" length="4.67" shape="1576.07,466.15 1576.87,464.95 1577.67,464.54 1578.47,464.94 1579.27,466.14"/>
    </edge>
    <edge id=":10902215172_3" function="internal">
        <lane id=":10902215172_3_0" index="0" allow="pedestrian delivery bicycle" speed="5.03" length="5.01" shape="1582.38,463.05 1581.02,463.23 1580.04,463.81 1579.46,464.78 1579.27,466.14"/>
    </edge>
    <edge id=":10902215172_4" function="internal">
        <lane id=":10902215172_4_0" index="0" allow="pedestrian delivery bicycle" speed="5.56" length="10.15" shape="1582.38,463.05 1579.62,462.64 1577.64,461.45 1576.44,459.50 1576.02,456.77"/>
    </edge>
    <edge id=":10902215172_5" function="internal">
        <lane id=":10902215172_5_0" index="0" allow="pedestrian delivery bicycle" speed="3.65" length="4.67" shape="1582.38,463.05 1581.19,462.24 1580.79,461.43 1581.20,460.64 1582.41,459.85"/>
    </edge>
    <edge id=":10902215172_6" function="internal">
        <lane id=":10902215172_6_0" index="0" allow="pedestrian delivery bicycle" speed="5.09" length="5.05" shape="1579.22,456.75 1579.43,458.09 1580.03,459.06 1581.02,459.64 1582.41,459.85"/>
    </edge>
    <edge id=":10902215172_7" function="internal">
        <lane id=":10902215172_7_0" index="0" allow="pedestrian delivery bicycle" speed="5.56" length="9.39" shape="1579.22,456.75 1579.27,466.14"/>
    </edge>
    <edge id=":10902215172_8" function="internal">
        <lane id=":10902215172_8_0" index="0" allow="pedestrian delivery bicycle" speed="3.65" length="4.67" shape="1579.22,456.75 1578.43,457.95 1577.63,458.36 1576.83,457.97 1576.02,456.77"/>
    </edge>
    <edge id=":10902215173_0" function="internal">
        <lane id=":10902215173_0_0" index="0" allow="pedestrian delivery bicycle" speed="3.65" length="4.67" shape="1596.63,459.96 1597.83,460.77 1598.22,461.57 1597.81,462.37 1596.61,463.16"/>
    </edge>
    <edge id=":11462358555_0" function="internal">
        <lane id=":11462358555_0_0" index="0" disallow="tram rail_urban rail rail_electric rail_fast ship container cable_car subway aircraft wheelchair scooter drone" speed="13.89" length="9.43" shape="2076.11,610.68 2066.68,610.53"/>
    </edge>
    <edge id=":11462358555_1" function="internal">
        <lane id=":11462358555_1_0" index="0" allow="pedestrian delivery bicycle" speed="6.79" length="3.35" shape="2076.11,610.68 2073.20,610.21 2072.86,609.99"/>
    </edge>
    <edge id=":11462358555_7" function="internal">
        <lane id=":11462358555_7_0" index="0" allow="pedestrian delivery bicycle" speed="6.79" length="7.27" shape="2072.86,609.99 2071.22,608.92 2070.18,606.80 2070.07,603.86"/>
    </edge>
    <edge id=":11462358555_2" function="internal">
        <lane id=":11462358555_2_0" index="0" allow="pedestrian delivery bicycle" speed="4.95" length="5.11" shape="2073.25,604.19 2073.30,605.61 2073.80,606.63 2074.76,607.25 2076.16,607.48"/>
    </edge>
    <edge id=":11462358555_3" function="internal">
        <lane id=":11462358555_3_0" index="0" allow="pedestrian delivery bicycle" speed="7.10" length="10.21" shape="2073.25,604.19 2072.58,607.00 2071.27,608.99 2069.30,610.17 2066.68,610.53"/>
    </edge>
    <edge id=":11462358555_4" function="internal">
        <lane id=":11462358555_4_0" index="0" allow="pedestrian delivery bicycle" speed="3.65" length="4.67" shape="2073.25,604.19 2072.33,605.30 2071.49,605.62 2070.74,605.13 2070.07,603.86"/>
    </edge>
    <edge id=":11462358555_5" function="internal">
        <lane id=":11462358555_5_0" index="0" allow="pedestrian delivery bicycle" speed="5.35" length="5.38" shape="2066.73,607.33 2068.05,607.13 2069.05,606.49 2069.72,605.39 2070.07,603.86"/>
    </edge>
    <edge id=":11462358555_6" function="internal">
        <lane id=":11462358555_6_0" index="0" disallow="tram rail_urban rail rail_electric rail_fast ship container cable_car subway aircraft wheelchair scooter drone" speed="13.89" length="9.43" shape="2066.73,607.33 2076.16,607.48"/>
    </edge>
    <edge id=":11462358557_0" function="internal">
        <lane id=":11462358557_0_0" index="0" allow="pedestrian delivery bicycle" speed="4.80" length="5.37" shape="2093.18,593.55 2092.93,592.04 2092.25,591.11 2091.16,590.76 2089.64,591.00"/>
    </edge>
    <edge id=":11462358557_1" function="internal">
        <lane id=":11462358557_1_0" index="0" allow="pedestrian delivery bicycle" speed="5.56" length="9.31" shape="2093.18,593.55 2093.05,590.79 2093.03,588.85 2093.41,587.00 2094.49,584.51"/>
    </edge>
    <edge id=":11462358557_2" function="internal">
        <lane id=":11462358557_2_0" index="0" allow="pedestrian delivery bicycle" speed="3.65" length="4.67" shape="2093.18,593.55 2093.95,592.33 2094.74,591.91 2095.55,592.29 2096.38,593.47"/>
    </edge>
    <edge id=":11462358557_3" function="internal">
        <lane id=":11462358557_3_0" index="0" allow="pedestrian delivery bicycle" speed="5.56" length="7.74" shape="2097.36,585.95 2096.47,588.02 2096.19,589.56 2096.25,591.17 2096.38,593.47"/>
    </edge>
    <edge id=":11462358557_4" function="internal">
        <lane id=":11462358557_4_0" index="0" allow="pedestrian delivery bicycle" speed="5.56" length="9.45" shape="2097.36,585.95 2096.28,587.45 2094.63,588.80 2092.42,589.98 2089.64,591.00"/>
    </edge>
    <edge id=":11462358557_5" function="internal">
        <lane id=":11462358557_5_0" index="0" allow="pedestrian delivery bicycle" speed="3.65" length="4.67" shape="2097.36,585.95 2096.10,586.66 2095.21,586.66 2094.67,585.94 2094.49,584.51"/>
    </edge>
    <edge id=":11462358557_6" function="internal">
        <lane id=":11462358557_6_0" index="0" allow="pedestrian delivery bicycle" speed="5.56" length="6.88" shape="2088.70,587.95 2090.87,587.17 2092.56,586.35 2093.77,585.46 2094.49,584.51"/>
    </edge>
    <edge id=":11462358557_7" function="internal">
        <lane id=":11462358557_7_0" index="0" allow="pedestrian delivery bicycle" speed="5.56" length="11.64" shape="2088.70,587.95 2091.99,587.43 2094.36,588.17 2095.83,590.19 2096.38,593.47"/>
    </edge>
    <edge id=":11462358557_8" function="internal">
        <lane id=":11462358557_8_0" index="0" allow="pedestrian delivery bicycle" speed="3.65" length="4.67" shape="2088.70,587.95 2090.08,588.36 2090.70,589.00 2090.55,589.89 2089.64,591.00"/>
    </edge>
    <edge id=":11462358558_0" function="internal">
        <lane id=":11462358558_0_0" index="0" disallow="tram rail_urban rail rail_electric rail_fast ship container cable_car subway aircraft wheelchair scooter drone" speed="13.89" length="8.30" shape="2099.72,611.04 2091.42,610.91"/>
    </edge>
    <edge id=":11462358558_1" function="internal">
        <lane id=":11462358558_1_0" index="0" allow="pedestrian delivery bicycle" speed="6.96" length="3.19" shape="2099.72,611.04 2097.04,610.60 2096.64,610.35"/>
    </edge>
    <edge id=":11462358558_7" function="internal">
        <lane id=":11462358558_7_0" index="0" allow="pedestrian delivery bicycle" speed="6.96" length="6.99" shape="2096.64,610.35 2095.10,609.38 2093.90,607.37 2093.45,604.58"/>
    </edge>
    <edge id=":11462358558_2" function="internal">
        <lane id=":11462358558_2_0" index="0" allow="pedestrian delivery bicycle" speed="5.17" length="5.16" shape="2096.65,604.50 2096.88,605.94 2097.47,606.98 2098.44,607.61 2099.77,607.84"/>
    </edge>
    <edge id=":11462358558_3" function="internal">
        <lane id=":11462358558_3_0" index="0" allow="pedestrian delivery bicycle" speed="6.56" length="9.49" shape="2096.65,604.50 2096.38,607.34 2095.42,609.35 2093.77,610.54 2091.42,610.91"/>
    </edge>
    <edge id=":11462358558_4" function="internal">
        <lane id=":11462358558_4_0" index="0" allow="pedestrian delivery bicycle" speed="3.65" length="4.67" shape="2096.65,604.50 2095.88,605.72 2095.09,606.14 2094.28,605.76 2093.45,604.58"/>
    </edge>
    <edge id=":11462358558_5" function="internal">
        <lane id=":11462358558_5_0" index="0" allow="pedestrian delivery bicycle" speed="4.64" length="4.20" shape="2091.47,607.71 2092.37,607.53 2093.00,606.94 2093.36,605.96 2093.45,604.58"/>
    </edge>
    <edge id=":11462358558_6" function="internal">
        <lane id=":11462358558_6_0" index="0" disallow="tram rail_urban rail rail_electric rail_fast ship container cable_car subway aircraft wheelchair scooter drone" speed="13.89" length="8.30" shape="2091.47,607.71 2099.77,607.84"/>
    </edge>
    <edge id=":1201200159_0" function="internal">
        <lane id=":1201200159_0_0" index="0" disallow="tram rail_urban rail rail_electric rail_fast ship container cable_car subway aircraft wheelchair scooter drone" speed="17.81" length="0.31" shape="1306.63,868.57 1306.63,868.88"/>
    </edge>
    <edge id=":1201200159_1" function="internal">
        <lane id=":1201200159_1_0" index="0" disallow="tram rail_urban rail rail_electric rail_fast ship container cable_car subway aircraft wheelchair scooter drone" speed="17.81" length="0.26" shape="1303.43,868.83 1303.43,868.57"/>
    </edge>
    <edge id=":1201200164_0" function="internal">
        <lane id=":1201200164_0_0" index="0" disallow="tram rail_urban rail rail_electric rail_fast ship container cable_car subway aircraft wheelchair scooter drone" speed="17.81" length="0.25" shape="1306.85,760.48 1306.85,760.73"/>
    </edge>
    <edge id=":1201200164_1" function="internal">
        <lane id=":1201200164_1_0" index="0" disallow="tram rail_urban rail rail_electric rail_fast ship container cable_car subway aircraft wheelchair scooter drone" speed="17.81" length="0.31" shape="1303.65,760.71 1303.65,760.40"/>
    </edge>
    <edge id=":1201200198_0" function="internal">
        <lane id=":1201200198_0_0" index="0" disallow="tram rail_urban rail rail_electric rail_fast ship container cable_car subway aircraft wheelchair scooter drone" speed="3.65" length="4.67" shape="1300.12,1553.63 1299.33,1554.84 1298.53,1555.24 1297.73,1554.84 1296.92,1553.65"/>
    </edge>
    <edge id=":12500272652_0" function="internal">
        <lane id=":12500272652_0_0" index="0" allow="pedestrian delivery bicycle" speed="5.12" length="5.10" shape="2123.13,775.38 2121.72,775.56 2120.69,776.12 2120.06,777.08 2119.82,778.41"/>
    </edge>
    <edge id=":12500272652_1" function="internal">
        <lane id=":12500272652_1_0" index="0" allow="pedestrian delivery bicycle" speed="7.62" length="13.01" shape="2123.13,775.38 2118.93,774.94 2115.97,773.69 2114.23,771.65 2113.72,768.80"/>
    </edge>
    <edge id=":12500272652_2" function="internal">
        <lane id=":12500272652_2_0" index="0" allow="pedestrian delivery bicycle" speed="3.65" length="4.67" shape="2123.13,775.38 2121.94,774.57 2121.54,773.76 2121.95,772.97 2123.16,772.18"/>
    </edge>
    <edge id=":12500272652_3" function="internal">
        <lane id=":12500272652_3_0" index="0" allow="pedestrian delivery bicycle" speed="5.01" length="5.03" shape="2120.12,769.01 2120.27,770.39 2120.83,771.37 2121.79,771.97 2123.16,772.18"/>
    </edge>
    <edge id=":12500272652_4" function="internal">
        <lane id=":12500272652_4_0" index="0" disallow="tram rail_urban rail rail_electric rail_fast ship container cable_car subway aircraft wheelchair scooter drone" speed="22.22" length="9.41" shape="2120.12,769.01 2119.82,778.41"/>
        <lane id=":12500272652_4_1" index="1" disallow="tram rail_urban rail rail_electric rail_fast ship container cable_car subway aircraft wheelchair scooter drone" speed="22.22" length="9.41" shape="2116.92,768.90 2116.62,778.32"/>
    </edge>
    <edge id=":12500272652_6" function="internal">
        <lane id=":12500272652_6_0" index="0" disallow="tram rail_urban rail rail_electric rail_fast ship container cable_car subway aircraft wheelchair scooter drone" speed="22.22" length="9.43" shape="2110.22,778.12 2110.53,768.69"/>
        <lane id=":12500272652_6_1" index="1" disallow="tram rail_urban rail rail_electric rail_fast ship container cable_car subway aircraft wheelchair scooter drone" speed="22.22" length="9.43" shape="2113.42,778.22 2113.72,768.80"/>
    </edge>
    <edge id=":12500272652_8" function="internal">
        <lane id=":12500272652_8_0" index="0" allow="pedestrian delivery bicycle" speed="7.70" length="2.76" shape="2113.42,778.22 2114.10,775.55"/>
    </edge>
    <edge id=":12500272652_9" function="internal">
        <lane id=":12500272652_9_0" index="0" allow="pedestrian delivery bicycle" speed="7.70" length="10.07" shape="2114.10,775.55 2115.95,773.65 2118.97,772.53 2123.16,772.18"/>
    </edge>
    <edge id=":12500272654_0" function="internal">
        <lane id=":12500272654_0_0" index="0" allow="pedestrian delivery bicycle" speed="5.03" length="5.01" shape="2151.33,778.87 2149.97,779.05 2149.00,779.62 2148.41,780.58 2148.21,781.94"/>
    </edge>
    <edge id=":12500272654_1" function="internal">
        <lane id=":12500272654_1_0" index="0" allow="pedestrian delivery bicycle" speed="5.56" length="9.42" shape="2151.33,778.87 2148.69,778.33 2147.03,777.20 2145.37,776.07 2142.72,775.54"/>
    </edge>
    <edge id=":12500272654_2" function="internal">
        <lane id=":12500272654_2_0" index="0" allow="pedestrian delivery bicycle" speed="3.65" length="4.67" shape="2151.33,778.87 2150.14,778.06 2149.75,777.25 2150.16,776.46 2151.37,775.67"/>
    </edge>
    <edge id=":12500272654_3" function="internal">
        <lane id=":12500272654_3_0" index="0" allow="pedestrian delivery bicycle" speed="4.96" length="4.61" shape="2148.07,773.23 2148.31,774.28 2148.95,775.04 2149.97,775.50 2151.37,775.67"/>
    </edge>
    <edge id=":12500272654_4" function="internal">
        <lane id=":12500272654_4_0" index="0" allow="pedestrian delivery bicycle" speed="5.56" length="8.71" shape="2148.07,773.23 2148.21,781.94"/>
    </edge>
    <edge id=":12500272654_5" function="internal">