<?xml version="1.0" encoding="UTF-8"?>

<!-- generated on 2025-04-11 19:43:16 by Eclipse SUMO netedit Version 1.22.0
-->

<routes xmlns:xsi="http://www.w3.org/2001/XMLSchema-instance" xsi:noNamespaceSchemaLocation="http://sumo.dlr.de/xsd/routes_file.xsd">
    <!-- VTypes -->
    <vType id="bus" length="12.00" minGap="2.00" maxSpeed="15.00" speedFactor="normc(0.70,0.10,0.20,2.00)" accel="1.5" decel="4.0" sigma="0.8"/>
    <vType id="car" length="5.00" minGap="1.50" maxSpeed="20.00" speedFactor="normc(0.80,0.20,0.20,2.00)" accel="2.0" decel="4.5" sigma="0.8"/>
    <vType id="truck" length="15.00" minGap="2.00" maxSpeed="12.00" speedFactor="normc(0.60,0.10,0.20,2.00)" accel="1.0" decel="3.5" sigma="0.8"/>
    <!-- Vehicles, persons and containers (sorted by depart) -->
    <flow id="bus_1" type="bus" begin="0.00" from="210585009#0" to="215591445#7" end="9000.00" vehsPerHour="300"/>
    <flow id="bus_2" type="bus" begin="0.00" from="215671204#5" to="210585114#1" end="3600.00" vehsPerHour="300"/>
    <flow id="bus_3" type="bus" begin="0.00" from="-E19" to="80776635#6" end="3600.00" vehsPerHour="300"/>
    <flow id="peak_1" type="car" begin="0.00" departLane="random" from="210585009#0" to="215591445#7" end="3600.00" vehsPerHour="6000"/>
    <flow id="peak_2" type="car" begin="0.00" departLane="random" from="215671204#5" to="210585114#1" end="3600.00" vehsPerHour="6000"/>
    <flow id="peak_3" type="car" begin="0.00" departLane="random" from="-E19" to="80776635#6" end="3600.00" vehsPerHour="6000"/>
    <flow id="random_1" type="car" begin="0.00" departLane="random" departSpeed="max" from="210585009#0" to="215591445#7" end="3600.00" vehsPerHour="4500"/>
    <flow id="random_2" type="car" begin="0.00" departLane="random" departSpeed="max" from="215671204#5" to="210585114#1" end="3600.00" vehsPerHour="4500"/>
    <flow id="random_3" type="car" begin="0.00" departLane="random" departSpeed="max" from="-E19" to="80776635#6" end="3600.00" vehsPerHour="4500"/>
    <flow id="random_4" type="car" begin="0.00" departLane="random" departSpeed="max" from="-215885102#4" to="127588522#2" end="3600.00" vehsPerHour="4500"/>
    <flow id="random_5" type="car" begin="0.00" departLane="random" departSpeed="max" from="-210584958#1" to="210585114#0" end="3600.00" vehsPerHour="4500"/>
    <flow id="truck_1" type="truck" begin="0.00" from="210585009#0" to="215591445#7" end="3600.00" vehsPerHour="1200"/>
    <flow id="truck_2" type="truck" begin="0.00" from="215671204#5" to="210585114#1" end="3600.00" vehsPerHour="9000"/>
    <flow id="truck_3" type="truck" begin="0.00" from="-E19" to="80776635#6" end="3600.00" vehsPerHour="9000"/>
    <flow id="veh-21" begin="0.00" from="156772060#1" to="-213546019#0" via="156772060#4 156772060#5 156772060#7 156772060#8 156772060#9 -80776640#16 -156772091#19 -156772091#16 -156772091#15 -156772091#14 -156772091#13 -156772091#11 -156772091#5 -44075488#0 -210585132 -210585131 -11190859 -213546019#9 -213546019#6" end="3600.00" vehsPerHour="9000"/>
    <flow id="veh-25" begin="0.00" from="-157850209" to="-215795058#0" via="-157850196 -157850178#0 -83668682#1 -83668682#0 -157850217#6 -157850217#3 -157850217#2 -157850217#1 -69539614#1 -69539618 -75459767 -215795051#8 -215795051#7 -215795051#4 210585132 67567167#0 67567167#1 67567167#2 11185663 11203462#0" end="3600.00" vehsPerHour="9000"/>
    <flow id="veh_1" type="car" begin="0.00" from="210585009#0" to="210585031" via="210585009#1 210585010#0 -43990411#7 -43990411#6 53848098#5 53848099#1 -215671211#2 67567288#10 -104081861#4 156772091#9 156772091#11 156772091#12 156772091#13 156772091#14 156772091#15 156772091#16 210584981 210584980 210584984#0 210584984#1 210584984#2 210584982 1262489097 1262489098 210584973#0 210584973#1 -80775430#5 11195371#0 11195371#1 210585029 210585028 210585041 210585027" end="3600.00" vehsPerHour="18000"/>
    <flow id="veh_10" type="car" begin="0.00" from="210585009#0" to="215591445#7" end="3600.00" vehsPerHour="9000"/>
    <flow id="veh_11" type="car" begin="0.00" from="215671204#5" to="210585114#1" end="3600.00" vehsPerHour="9000"/>
    <flow id="veh_12" type="car" begin="0.00" from="-E19" to="80776635#6" end="3600.00" vehsPerHour="9000"/>
    <flow id="veh_13" type="car" begin="0.00" from="-215885102#4" to="127588522#2" end="3600.00" vehsPerHour="9000"/>
    <flow id="veh_14" type="car" begin="0.00" from="-210584958#1" to="210585114#0" end="3600.00" vehsPerHour="9000"/>
    <flow id="veh_2" type="car" begin="0.00" from="215671204#5" to="215591445#7" via="215671204#6 215671204#7 53848098#0 53848098#1 53848098#2 -43990411#3 67567288#7 67567288#8 67567288#9 -215671211#0 156772091#5 156772091#6 156772091#9 156772091#11 156772091#12 156772091#13 156772091#14 156772091#15 156772091#16 156772091#17 156772091#18 156772091#19 215591445#1 215591445#2 215591445#3 215591445#4 215591445#5 215591445#6" end="3600.00" vehsPerHour="18000"/>
    <flow id="veh_22" begin="0.00" from="-216298944#3" to="-215795020#0" via="-216298944#1 -216298944#0 -11185666#1 80776640#9 80776640#12 -156772091#17 -156772091#16 150283323 150283343#0 -150283324#2 -150283324#1 -150283324#0 -127588518#10 -127588518#9 -127588518#7 -127588518#3 -210584955 -210585143 -127605069 -67567288#10 -67567288#9 43990411#3 43990411#7 -210585009#0" end="3600.00" vehsPerHour="9000"/>
    <flow id="veh_3" type="car" begin="0.00" from="-E19" to="-80775430#0" via="-157848750#2 -157848750#1 -157848751#0 -156166346#2 -156166346#1 -156166346#0 -210584999#2 -210585001#1 215885105 -210585020#1 157850217#2 157850217#3 157850217#4 157850217#5 -80776640#2 -80776640#1 -1074201624#1 -80775430#6 -80775430#5 -80775430#4 -80775430#3 -80775430#2 -80775430#1" end="3600.00" vehsPerHour="18000"/>
    <flow id="veh_4" type="car" begin="0.00" from="-215885102#4" to="210585114#1" via="-215885102#2 -215885102#1 -11185558#2 -11185558#1 -11185558#0 -73542488 -11196649#1 -11196649#0 -67567167#2 -11181964#1 215795051#1 215795051#2 215795051#3 215795051#4 215795051#5 11179545 210585119 210585120#0 210585120#1 210585122#0 210585122#1 210585123#0 210585123#1 210585114#0" end="3600.00" vehsPerHour="10909.09"/>
    <flow id="veh_6" type="car" begin="0.00" from="-210584958#1" to="80776635#6" via="-210584958#0 -210584955 156772091#13 156772091#14 156772091#15 -210585018 -210585020#2 -210585020#0 86979137 127588486#0 80776635#2 80776635#4 80776635#5" end="3600.00" vehsPerHour="10909.09"/>
    <flow id="veh_7" type="car" begin="0.00" from="213546019#0" to="127588522#2" via="213546019#1 213546019#2 213546019#3 213546019#4 213546019#6 213546019#9 213546019#10 127588489#1 127588489#2 127588489#3 127588489#4 127588487#0 127588487#1 73538104 157403419#0 157403419#1 11199567 11198271 11188072 210584977 210584976 -157850183 210585001#0 210585001#1 210584999#2 156166346#0 157848751#0 127588518#7 127588518#8 127588518#9 127588518#10 127588518#11 127588518#12 127588518#13 127588525#1 80775448#1 80775448#2 80775448#4 80775448#5 127588522#0 127588522#1" end="3600.00" vehsPerHour="10000"/>
    <flow id="veh_8" type="car" begin="0.00" from="67567288#0" to="215591445#7" via="67567288#1 67567288#2 -43990411#1 156772091#1 156772091#2 156772091#4 156772091#6 156772091#9 156772091#11 156772091#12 156772091#13 156772091#14 156772091#15 156772091#16 156772091#17 156772091#18 156772091#19 215591445#1 215591445#2 215591445#3 215591445#4 215591445#5 215591445#6" end="3600.00" vehsPerHour="10909.09"/>
    <flow id="veh_9" type="car" begin="0.00" from="-75459746#6" to="210585114#0" via="-75459746#3 -75459746#1 -104081868#1 -104081861#1 -73540480#2 -73540480#1 -73540480#0 210585119 -210585141 67561688#1 210585121" end="3600.00" vehsPerHour="10909.09"/>
</routes>
