<?xml version="1.0" encoding="UTF-8"?>

<!-- generated on 2025-04-14 21:33:30 by Eclipse SUMO sumo Version 1.22.0
-->

<sumoConfiguration xmlns:xsi="http://www.w3.org/2001/XMLSchema-instance" xsi:noNamespaceSchemaLocation="http://sumo.dlr.de/xsd/sumoConfiguration.xsd">

    <input>
        <net-file value="network3.net.xml"/>
        <route-files value="real_word_3.rou.xml"/>
        <additional-files value="map3.poly.xml"/>
    </input>

</sumoConfiguration>
